L24/1726533/Reguladores.dss
! REGULADORES — gerados de UNREMT
! vreg = 122 V e band = 2 V — AJUSTES TIPICOS, nao de campo.
! kVA = 5000 adotado; a BDGD nao traz a potencia do regulador.
! O ptratio segue a tensao de cada alimentador (TP para 120 V).
New Transformer.REG_349289779_1 phases=1 windings=2 XHL=0.04
~ buses=[segm_349289828.1 segm_349289767.1] conns=[wye wye]
~ kVs=[7.9674 7.9674] kVAs=[5000 5000] %Rs=[0.01 0.01]
~ maxtap=1.10 mintap=0.90 numtaps=32
New RegControl.RC_REG_349289779_1 transformer=REG_349289779_1 winding=2 vreg=122 band=2 ptratio=66.4 delay=15 maxtapchange=1
New Transformer.REG_349289779_2 phases=1 windings=2 XHL=0.04
~ buses=[segm_349289828.2 segm_349289767.2] conns=[wye wye]
~ kVs=[7.9674 7.9674] kVAs=[5000 5000] %Rs=[0.01 0.01]
~ maxtap=1.10 mintap=0.90 numtaps=32
New RegControl.RC_REG_349289779_2 transformer=REG_349289779_2 winding=2 vreg=122 band=2 ptratio=66.4 delay=15 maxtapchange=1
New Transformer.REG_349289779_3 phases=1 windings=2 XHL=0.04
~ buses=[segm_349289828.3 segm_349289767.3] conns=[wye wye]
~ kVs=[7.9674 7.9674] kVAs=[5000 5000] %Rs=[0.01 0.01]
~ maxtap=1.10 mintap=0.90 numtaps=32
New RegControl.RC_REG_349289779_3 transformer=REG_349289779_3 winding=2 vreg=122 band=2 ptratio=66.4 delay=15 maxtapchange=1
New Transformer.REG_349289853_1 phases=1 windings=2 XHL=0.04
~ buses=[segm_349289902.1 segm_349289841.1] conns=[wye wye]
~ kVs=[7.9674 7.9674] kVAs=[5000 5000] %Rs=[0.01 0.01]
~ maxtap=1.10 mintap=0.90 numtaps=32
New RegControl.RC_REG_349289853_1 transformer=REG_349289853_1 winding=2 vreg=122 band=2 ptratio=66.4 delay=15 maxtapchange=1
New Transformer.REG_349289853_2 phases=1 windings=2 XHL=0.04
~ buses=[segm_349289902.2 segm_349289841.2] conns=[wye wye]
~ kVs=[7.9674 7.9674] kVAs=[5000 5000] %Rs=[0.01 0.01]
~ maxtap=1.10 mintap=0.90 numtaps=32
New RegControl.RC_REG_349289853_2 transformer=REG_349289853_2 winding=2 vreg=122 band=2 ptratio=66.4 delay=15 maxtapchange=1
New Transformer.REG_349289853_3 phases=1 windings=2 XHL=0.04
~ buses=[segm_349289902.3 segm_349289841.3] conns=[wye wye]
~ kVs=[7.9674 7.9674] kVAs=[5000 5000] %Rs=[0.01 0.01]
~ maxtap=1.10 mintap=0.90 numtaps=32
New RegControl.RC_REG_349289853_3 transformer=REG_349289853_3 winding=2 vreg=122 band=2 ptratio=66.4 delay=15 maxtapchange=1
New Transformer.REG_349289927_1 phases=1 windings=2 XHL=0.04
~ buses=[segm_349289976.1 segm_349289915.1] conns=[wye wye]
~ kVs=[7.9674 7.9674] kVAs=[5000 5000] %Rs=[0.01 0.01]
~ maxtap=1.10 mintap=0.90 numtaps=32
New RegControl.RC_REG_349289927_1 transformer=REG_349289927_1 winding=2 vreg=122 band=2 ptratio=66.4 delay=15 maxtapchange=1
New Transformer.REG_349289927_2 phases=1 windings=2 XHL=0.04
~ buses=[segm_349289976.2 segm_349289915.2] conns=[wye wye]
~ kVs=[7.9674 7.9674] kVAs=[5000 5000] %Rs=[0.01 0.01]
~ maxtap=1.10 mintap=0.90 numtaps=32
New RegControl.RC_REG_349289927_2 transformer=REG_349289927_2 winding=2 vreg=122 band=2 ptratio=66.4 delay=15 maxtapchange=1
New Transformer.REG_349289927_3 phases=1 windings=2 XHL=0.04
~ buses=[segm_349289976.3 segm_349289915.3] conns=[wye wye]
~ kVs=[7.9674 7.9674] kVAs=[5000 5000] %Rs=[0.01 0.01]
~ maxtap=1.10 mintap=0.90 numtaps=32
New RegControl.RC_REG_349289927_3 transformer=REG_349289927_3 winding=2 vreg=122 band=2 ptratio=66.4 delay=15 maxtapchange=1
New Transformer.REG_349290075_1 phases=1 windings=2 XHL=0.04
~ buses=[segm_349290124.1 segm_349290063.1] conns=[wye wye]
~ kVs=[7.9674 7.9674] kVAs=[5000 5000] %Rs=[0.01 0.01]
~ maxtap=1.10 mintap=0.90 numtaps=32
New RegControl.RC_REG_349290075_1 transformer=REG_349290075_1 winding=2 vreg=122 band=2 ptratio=66.4 delay=15 maxtapchange=1
New Transformer.REG_349290075_2 phases=1 windings=2 XHL=0.04
~ buses=[segm_349290124.2 segm_349290063.2] conns=[wye wye]
~ kVs=[7.9674 7.9674] kVAs=[5000 5000] %Rs=[0.01 0.01]
~ maxtap=1.10 mintap=0.90 numtaps=32
New RegControl.RC_REG_349290075_2 transformer=REG_349290075_2 winding=2 vreg=122 band=2 ptratio=66.4 delay=15 maxtapchange=1
New Transformer.REG_349290075_3 phases=1 windings=2 XHL=0.04
~ buses=[segm_349290124.3 segm_349290063.3] conns=[wye wye]
~ kVs=[7.9674 7.9674] kVAs=[5000 5000] %Rs=[0.01 0.01]
~ maxtap=1.10 mintap=0.90 numtaps=32
New RegControl.RC_REG_349290075_3 transformer=REG_349290075_3 winding=2 vreg=122 band=2 ptratio=66.4 delay=15 maxtapchange=1
New Transformer.REG_349290149_1 phases=1 windings=2 XHL=0.04
~ buses=[segm_349290198.1 segm_349290137.1] conns=[wye wye]
~ kVs=[7.9674 7.9674] kVAs=[5000 5000] %Rs=[0.01 0.01]
~ maxtap=1.10 mintap=0.90 numtaps=32
New RegControl.RC_REG_349290149_1 transformer=REG_349290149_1 winding=2 vreg=122 band=2 ptratio=66.4 delay=15 maxtapchange=1
New Transformer.REG_349290149_2 phases=1 windings=2 XHL=0.04
~ buses=[segm_349290198.2 segm_349290137.2] conns=[wye wye]
~ kVs=[7.9674 7.9674] kVAs=[5000 5000] %Rs=[0.01 0.01]
~ maxtap=1.10 mintap=0.90 numtaps=32
New RegControl.RC_REG_349290149_2 transformer=REG_349290149_2 winding=2 vreg=122 band=2 ptratio=66.4 delay=15 maxtapchange=1
New Transformer.REG_349290149_3 phases=1 windings=2 XHL=0.04
~ buses=[segm_349290198.3 segm_349290137.3] conns=[wye wye]
~ kVs=[7.9674 7.9674] kVAs=[5000 5000] %Rs=[0.01 0.01]
~ maxtap=1.10 mintap=0.90 numtaps=32
New RegControl.RC_REG_349290149_3 transformer=REG_349290149_3 winding=2 vreg=122 band=2 ptratio=66.4 delay=15 maxtapchange=1
New Transformer.REG_349290223_1 phases=1 windings=2 XHL=0.04
~ buses=[segm_349290272.1 segm_349290211.1] conns=[wye wye]
~ kVs=[7.9674 7.9674] kVAs=[5000 5000] %Rs=[0.01 0.01]
~ maxtap=1.10 mintap=0.90 numtaps=32
New RegControl.RC_REG_349290223_1 transformer=REG_349290223_1 winding=2 vreg=122 band=2 ptratio=66.4 delay=15 maxtapchange=1
New Transformer.REG_349290223_2 phases=1 windings=2 XHL=0.04
~ buses=[segm_349290272.2 segm_349290211.2] conns=[wye wye]
~ kVs=[7.9674 7.9674] kVAs=[5000 5000] %Rs=[0.01 0.01]
~ maxtap=1.10 mintap=0.90 numtaps=32
New RegControl.RC_REG_349290223_2 transformer=REG_349290223_2 winding=2 vreg=122 band=2 ptratio=66.4 delay=15 maxtapchange=1
New Transformer.REG_349290223_3 phases=1 windings=2 XHL=0.04
~ buses=[segm_349290272.3 segm_349290211.3] conns=[wye wye]
~ kVs=[7.9674 7.9674] kVAs=[5000 5000] %Rs=[0.01 0.01]
~ maxtap=1.10 mintap=0.90 numtaps=32
New RegControl.RC_REG_349290223_3 transformer=REG_349290223_3 winding=2 vreg=122 band=2 ptratio=66.4 delay=15 maxtapchange=1
New Transformer.REG_1343150551_1 phases=1 windings=2 XHL=0.04
~ buses=[segm_1343150558.1 segm_1343150615.1] conns=[wye wye]
~ kVs=[7.9674 7.9674] kVAs=[5000 5000] %Rs=[0.01 0.01]
~ maxtap=1.10 mintap=0.90 numtaps=32
New RegControl.RC_REG_1343150551_1 transformer=REG_1343150551_1 winding=2 vreg=122 band=2 ptratio=66.4 delay=15 maxtapchange=1
New Transformer.REG_1343150551_2 phases=1 windings=2 XHL=0.04
~ buses=[segm_1343150558.2 segm_1343150615.2] conns=[wye wye]
~ kVs=[7.9674 7.9674] kVAs=[5000 5000] %Rs=[0.01 0.01]
~ maxtap=1.10 mintap=0.90 numtaps=32
New RegControl.RC_REG_1343150551_2 transformer=REG_1343150551_2 winding=2 vreg=122 band=2 ptratio=66.4 delay=15 maxtapchange=1
New Transformer.REG_1343150551_3 phases=1 windings=2 XHL=0.04
~ buses=[segm_1343150558.3 segm_1343150615.3] conns=[wye wye]
~ kVs=[7.9674 7.9674] kVAs=[5000 5000] %Rs=[0.01 0.01]
~ maxtap=1.10 mintap=0.90 numtaps=32
New RegControl.RC_REG_1343150551_3 transformer=REG_1343150551_3 winding=2 vreg=122 band=2 ptratio=66.4 delay=15 maxtapchange=1
